Version 4.1
SHEET 1 880 680
WIRE 192 64 160 64
WIRE 304 64 192 64
WIRE 240 80 208 80
WIRE 32 96 32 64
WIRE 192 112 192 64
WIRE 208 112 208 80
WIRE 240 112 240 80
WIRE -64 128 -64 96
WIRE 320 128 256 128
WIRE 512 144 512 112
WIRE 304 160 304 64
WIRE 256 176 256 128
WIRE 256 176 240 176
WIRE 288 176 256 176
WIRE 32 192 32 176
WIRE 48 192 32 192
WIRE 160 192 112 192
WIRE 304 208 304 192
WIRE 304 208 256 208
WIRE 256 224 256 208
WIRE 304 224 304 208
WIRE 112 240 112 192
WIRE 272 240 112 240
WIRE 336 240 336 176
WIRE 336 240 320 240
WIRE 208 272 208 224
WIRE 304 304 304 256
FLAG 240 112 0
FLAG 208 272 CLK
IOPIN 208 272 In
FLAG 48 192 0
FLAG 160 160 D
IOPIN 160 160 In
FLAG -64 96 D
IOPIN -64 96 In
FLAG -64 208 0
FLAG 512 224 0
FLAG 512 112 CLK
IOPIN 512 112 In
FLAG 160 64 vdd
IOPIN 160 64 In
FLAG 32 64 vdd
IOPIN 32 64 In
FLAG 304 304 vdd
IOPIN 304 304 In
FLAG 320 128 Output
IOPIN 320 128 Out
FLAG 256 224 0
SYMBOL Mux_TG_2 192 176 R0
SYMATTR InstName X1
SYMBOL voltage 32 80 R0
WINDOW 0 -32 56 VBottom 2
WINDOW 3 32 56 VTop 2
WINDOW 123 0 0 Left 0
WINDOW 39 0 0 Left 0
SYMATTR InstName V1
SYMATTR Value 5
SYMBOL voltage -64 112 R0
WINDOW 3 -99 145 Left 2
WINDOW 123 0 0 Left 0
WINDOW 39 0 0 Left 0
SYMATTR InstName V2
SYMATTR Value PULSE(0 5 0 0 0 3ms 6ms 10)
SYMBOL voltage 512 128 R0
WINDOW 3 -132 134 Left 2
WINDOW 123 0 0 Left 0
WINDOW 39 0 0 Left 0
SYMATTR InstName V3
SYMATTR Value PULSE(0 5 0 0 0 1ms 2ms 20)
SYMBOL CMOS_Inverter 304 176 R0
SYMATTR InstName X2
SYMBOL CMOS_Inverter 304 240 R180
SYMATTR InstName X3
TEXT -80 320 Left 2 !.tran 40ms
