Version 4.1
SHEET 1 880 680
WIRE 96 -272 64 -272
WIRE 96 -240 96 -272
WIRE 96 -192 96 -224
WIRE 48 -160 16 -160
WIRE 96 -128 96 -144
WIRE 160 -128 96 -128
WIRE 16 -112 16 -160
WIRE 16 -112 -16 -112
WIRE 96 -112 96 -128
WIRE 16 -32 16 -112
WIRE 48 -32 16 -32
WIRE 96 -32 96 -64
WIRE 160 48 160 -128
WIRE 144 112 144 96
WIRE 192 112 192 96
WIRE 192 112 144 112
WIRE 208 128 176 128
WIRE -64 144 -96 144
WIRE 144 144 144 112
WIRE 144 144 96 144
WIRE 208 144 208 128
WIRE 240 144 240 96
WIRE 288 144 240 144
WIRE 320 144 288 144
WIRE 176 160 176 128
WIRE 192 160 176 160
WIRE -64 176 -64 144
WIRE 144 176 144 144
WIRE 192 176 192 160
WIRE 240 176 240 144
WIRE 288 192 288 144
FLAG 320 144 Output
IOPIN 320 144 Out
FLAG -96 96 0
FLAG -96 16 VDD
IOPIN -96 16 In
FLAG -64 256 0
FLAG 224 224 Input
IOPIN 224 224 In
FLAG 96 144 VDD
IOPIN 96 144 In
FLAG -96 144 Input
IOPIN -96 144 In
FLAG 96 -16 0
FLAG 64 -272 VDD
IOPIN 64 -272 In
FLAG -16 -112 Input
IOPIN -16 -112 In
FLAG 288 272 0
FLAG 208 144 0
SYMBOL pmos4 240 48 R90
WINDOW 0 18 -60 Left 2
WINDOW 3 -15 -32 Left 2
SYMATTR InstName M1
SYMBOL nmos4 144 224 R270
WINDOW 0 16 167 Left 2
WINDOW 3 -20 129 Left 2
SYMATTR InstName M2
SYMBOL voltage -96 0 R0
WINDOW 123 0 0 Left 0
WINDOW 39 0 0 Left 0
SYMATTR InstName V1
SYMATTR Value 5
SYMBOL voltage -64 160 R0
WINDOW 3 -118 132 Left 2
WINDOW 123 0 0 Left 0
WINDOW 39 0 0 Left 0
SYMATTR Value PULSE(0 5 0 0 0 5ms 10ms 10)
SYMATTR InstName V2
SYMBOL pmos4 48 -240 R0
SYMATTR InstName M3
SYMBOL nmos4 48 -112 R0
SYMATTR InstName M4
SYMBOL res 272 176 R0
SYMATTR InstName R1
SYMATTR Value 10Meg
TEXT -216 336 Left 2 !.tran 100m
