Version 4.1
SHEET 1 880 680
WIRE 448 16 320 16
WIRE 320 32 320 16
WIRE 288 48 128 48
WIRE 400 48 336 48
WIRE 320 80 320 64
WIRE 320 80 192 80
WIRE 288 96 208 96
WIRE 192 112 192 80
WIRE 208 112 208 96
WIRE 448 112 448 16
WIRE 320 128 320 80
WIRE 128 160 128 48
WIRE 160 160 128 160
WIRE 320 160 320 128
WIRE 272 176 240 176
WIRE 304 176 272 176
WIRE 400 176 400 48
WIRE 400 176 352 176
WIRE 464 176 400 176
WIRE 160 192 112 192
WIRE 288 208 288 96
WIRE 320 208 320 192
WIRE 320 208 288 208
WIRE 448 208 448 112
WIRE 448 208 320 208
WIRE 208 256 208 224
WIRE 272 256 272 176
WIRE 368 256 272 256
FLAG 112 192 D
FLAG 208 256 CLK
FLAG 368 256 Y
FLAG 448 112 vgnd
FLAG 464 176 ~Y
FLAG 320 128 vdd
SYMBOL Mux_TG_2 192 176 R0
SYMATTR InstName X1
SYMBOL CMOS_Inverter 320 176 R0
SYMATTR InstName X2
SYMBOL CMOS_Inverter 320 48 R180
SYMATTR InstName X3
