Version 4.1
SHEET 1 880 680
WIRE 144 48 144 16
WIRE 128 64 48 64
WIRE 176 96 176 64
WIRE 144 112 144 80
WIRE 144 112 112 112
WIRE 208 176 208 144
WIRE 160 208 160 144
WIRE 160 208 64 208
WIRE 256 208 256 144
WIRE 336 208 256 208
WIRE 224 240 208 240
WIRE 160 272 160 208
WIRE 208 272 208 240
WIRE 256 272 256 208
WIRE 240 368 240 320
WIRE 240 368 208 368
FLAG 144 16 vdd
FLAG 112 112 vgnd
FLAG 224 240 vgnd
FLAG 208 176 vdd
FLAG 336 208 b
FLAG 64 208 a
FLAG 208 368 ctrl
FLAG 48 64 ctrl
SYMBOL pmos4 256 96 R90
WINDOW 0 45 -45 Left 2
WINDOW 3 12 -22 Left 2
SYMATTR InstName M1
SYMBOL nmos4 160 320 R270
WINDOW 0 7 145 Left 2
WINDOW 3 8 119 Left 2
SYMATTR InstName M2
SYMBOL CMOS_Inverter 144 64 R0
SYMATTR InstName X1
